data/VERIFIED cases/epricase_aug2022_v22_fix.m
% Case saved by PowerWorld Simulator, version 23, build date October 31, 2023
function mpc = epricase_aug2022_v22_fix
mpc.version = '2';
mpc.baseMVA =  100.00;

%% bus data 
mpc.bus = [
1	3	0.00	0.00	0.00	0.00	1	1.0500000	-2.093334	22.00	1	1.100	0.900
2	1	0.00	0.00	0.00	0.00	1	1.0430260	-7.781079	345.00	1	1.100	0.900
3	1	600.00	200.00	0.00	0.00	1	1.0267933	-22.017151	345.00	1	1.100	0.900
4	1	900.00	400.00	0.00	500.00	1	1.0450962	-22.769493	500.00	1	1.100	0.900
5	1	1200.00	350.00	0.00	0.00	1	1.0432219	-21.764203	500.00	1	1.100	0.900
6	1	300.00	150.00	0.00	0.00	1	1.0500041	-16.965013	500.00	1	1.100	0.900
7	2	0.00	0.00	0.00	0.00	1	1.0416886	-11.768769	22.00	1	1.100	0.900
8	2	0.00	0.00	0.00	0.00	1	1.0416886	-11.768769	22.00	1	1.100	0.900
11	1	0.00	0.00	0.00	0.00	1	1.0577434	-14.900611	500.00	1	1.100	0.900
12	1	0.00	0.00	0.00	0.00	1	1.0541381	-6.494321	500.00	1	1.100	0.900
13	2	0.00	0.00	0.00	0.00	1	1.0500001	-2.608359	22.00	1	1.100	0.900
14	2	0.00	0.00	0.00	0.00	1	1.0500001	-2.608359	22.00	1	1.100	0.900
15	1	1200.00	510.00	0.00	0.00	1	1.0301889	-22.195129	500.00	1	1.100	0.900
16	1	500.00	200.00	0.00	200.00	1	1.0307176	-20.587997	345.00	1	1.100	0.900
17	1	0.00	0.00	0.00	0.00	1	1.0500010	-6.700568	345.00	1	1.100	0.900
18	2	0.00	0.00	0.00	0.00	1	1.0517084	-2.964507	22.00	1	1.100	0.900
19	2	0.00	0.00	0.00	0.00	1	1.0517084	-2.964507	22.00	1	1.100	0.900
20	1	0.00	0.00	0.00	0.00	1	1.0410095	-19.357403	345.00	1	1.100	0.900
21	1	0.00	0.00	0.00	0.00	1	1.0432350	-21.761226	500.00	1	1.100	0.900
];

%% generator data 
mpc.gen = [
1	776.26	81.50	400.00	-300.00	1.0500	1000.00	1	776.26	776.26	0.00	0.00	0.00	0.00	0.00	0.00	0	0	0	0	10.0000
7	900.00	-47.70	400.00	-350.00	1.0417	1100.00	1	900.00	900.00	0.00	0.00	0.00	0.00	0.00	0.00	0	0	0	0	10.0000
8	900.00	-47.70	400.00	-350.00	1.0417	1100.00	1	900.00	900.00	0.00	0.00	0.00	0.00	0.00	0.00	0	0	0	0	10.0000
13	500.00	-14.67	225.00	-200.00	1.0500	650.00	1	500.00	500.00	0.00	0.00	0.00	0.00	0.00	0.00	0	0	0	0	10.0000
14	500.00	-14.67	225.00	-200.00	1.0500	650.00	1	500.00	500.00	0.00	0.00	0.00	0.00	0.00	0.00	0	0	0	0	10.0000
18	600.00	26.12	400.00	-300.00	1.0517	900.00	1	600.00	600.00	0.00	0.00	0.00	0.00	0.00	0.00	0	0	0	0	10.0000
19	600.00	26.12	400.00	-300.00	1.0517	900.00	1	600.00	600.00	0.00	0.00	0.00	0.00	0.00	0.00	0	0	0	0	10.0000
];

%% generator cost data
mpc.gencost = [
2	0	0	4	0	0	1	0
2	0	0	4	0	0	1	0
2	0	0	4	0	0	1	0
2	0	0	4	0	0	1	0
2	0	0	4	0	0	1	0
2	0	0	4	0	0	1	0
2	0	0	4	0	0	1	0
];

%% branch data
mpc.branch = [
1	2	0.000168	0.014000	0.00000	1644.50	0.00	0.00	1.00000	0.000	1	0.00	0.00	776.26	81.50	-775.33	-4.14
2	3	0.002950	0.031500	0.53900	2120.00	0.00	0.00	0.00000	0.000	1	0.00	0.00	843.51	49.84	-824.05	100.25
17	2	0.002960	0.031000	0.54000	2120.00	0.00	0.00	0.00000	0.000	1	0.00	0.00	68.31	-12.04	-68.18	-45.70
3	4	0.000164	0.025000	0.00000	2000.00	0.00	0.00	1.00000	0.000	1	0.00	0.00	55.87	-75.17	-55.85	77.25
3	4	0.000160	0.025000	0.00000	2000.00	0.00	0.00	1.00000	0.000	1	0.00	0.00	55.88	-75.16	-55.87	77.24
3	4	0.000070	0.025000	0.00000	2000.00	0.00	0.00	1.00000	0.000	1	0.00	0.00	56.15	-74.96	-56.15	77.04
3	4	0.000070	0.025000	0.00000	2000.00	0.00	0.00	1.00000	0.000	1	0.00	0.00	56.15	-74.96	-56.15	77.04
4	5	0.000938	0.015450	1.65000	2000.00	0.00	0.00	0.00000	0.000	1	0.00	0.00	-122.52	-68.91	122.65	-108.80
4	5	0.000938	0.015450	0.00000	2000.00	0.00	0.00	0.00000	0.000	1	0.00	0.00	-122.52	21.20	122.65	-19.02
4	6	0.001866	0.030750	3.28000	2000.00	0.00	0.00	0.00000	0.000	1	0.00	0.00	-359.49	-155.69	361.71	-167.71
15	4	0.000794	0.013800	1.40000	2000.00	0.00	0.00	0.00000	0.000	1	0.00	0.00	71.59	-189.30	-71.45	40.94
5	6	0.001190	0.017800	2.46400	2000.00	0.00	0.00	0.00000	0.000	1	0.00	0.00	-513.77	-117.91	516.66	-108.79
20	5	0.000067	0.025000	0.00000	2000.00	0.00	0.00	1.00000	0.000	1	0.00	0.00	182.41	-5.87	-182.39	13.55
20	5	0.000067	0.025000	0.00000	2000.00	0.00	0.00	1.00000	0.000	1	0.00	0.00	182.41	-5.87	-182.39	13.55
5	21	0.000000	0.000010	0.00000	2000.00	0.00	0.00	0.00000	0.000	1	0.00	0.00	-566.76	-131.38	566.76	131.41
6	7	0.000120	0.011000	0.00000	1200.00	0.00	0.00	1.00000	0.000	1	0.00	0.00	-899.13	130.05	900.03	-47.70
6	8	0.000120	0.011000	0.00000	1200.00	0.00	0.00	1.00000	0.000	1	0.00	0.00	-899.13	130.05	900.03	-47.70
6	11	0.000578	0.009610	1.01700	2000.00	0.00	0.00	0.00000	0.000	1	0.00	0.00	-419.44	-107.90	420.37	10.51
15	6	0.001170	0.019200	2.05000	2000.00	0.00	0.00	0.00000	0.000	1	0.00	0.00	-516.69	-160.16	519.66	-12.85
15	6	0.001170	0.019200	2.05000	2000.00	0.00	0.00	0.00000	0.000	1	0.00	0.00	-516.69	-160.16	519.66	-12.85
11	12	0.000930	0.016300	1.63000	1200.00	0.00	0.00	0.00000	0.000	1	0.00	0.00	-991.27	62.26	999.64	-97.42
21	11	0.001404	0.023250	2.47200	2000.00	0.00	0.00	0.00000	0.000	1	0.00	0.00	-566.76	-131.41	570.90	-72.77
12	13	0.000080	0.015000	0.00000	750.00	0.00	0.00	1.00000	0.000	1	0.00	0.00	-499.82	48.71	500.00	-14.67
12	14	0.000080	0.015000	0.00000	750.00	0.00	0.00	1.00000	0.000	1	0.00	0.00	-499.82	48.71	500.00	-14.67
16	15	0.000067	0.025000	0.00000	2000.00	0.00	0.00	1.00000	0.000	1	0.00	0.00	119.13	3.53	-119.12	-0.19
16	15	0.000067	0.025000	0.00000	2000.00	0.00	0.00	1.00000	0.000	1	0.00	0.00	119.13	3.53	-119.12	-0.19
16	17	0.003920	0.038200	0.71400	2120.00	0.00	0.00	0.00000	0.000	1	0.00	0.00	-669.78	61.59	686.70	25.99
16	20	0.003402	0.034800	0.62300	2120.00	0.00	0.00	0.00000	0.000	1	0.00	0.00	-68.47	-56.17	68.64	-8.97
18	17	0.000168	0.012000	0.00000	1644.50	0.00	0.00	1.00000	0.000	1	0.00	0.00	600.00	26.12	-599.45	13.01
19	17	0.000168	0.012000	0.00000	1644.50	0.00	0.00	1.00000	0.000	1	0.00	0.00	600.00	26.12	-599.45	13.01
17	20	0.005830	0.054200	1.06400	2120.00	0.00	0.00	0.00000	0.000	1	0.00	0.00	443.89	-39.97	-433.46	20.71
];

%% bus names
mpc.bus_name = {
'1';
'2';
'3';
'4';
'5';
'6';
'7';
'8';
'11';
'12';
'13';
'14';
'15';
'16';
'17';
'18';
'19';
'20';
'21';
};

%% Generator Unit Types
mpc.gentype = {
'UN';
'UN';
'UN';
'UN';
'UN';
'UN';
'UN';
};

%% Generator Fuel Types
mpc.genfuel = {
'unknown';
'unknown';
'unknown';
'unknown';
'unknown';
'unknown';
'unknown';
};

%% gmd_bus data
%column_names% parent_index status g_gnd sub name
mpc.gmd_bus = {
-1	1	5.0000000000		-1	'dc sub Substation 1'
-1	1	5.0000000000		-1	'dc sub Substation 2'
-1	1	5.0000000000		-1	'dc sub Substation 3'
-1	1	1.0000000000		-1	'dc sub Substation 4'
-1	1	10.0000000000		-1	'dc sub Substation 5'
-1	1	10.0000000000		-1	'dc sub Substation 6'
-1	1	4.6216128431		-1	'dc sub Substaton 7'
-1	1	10.0000000000		-1	'dc sub Substation 8'
1	1	0.0000000000		1	'dc bus 1'
2	1	0.0000000000		1	'dc bus 2'
3	1	0.0000000000		4	'dc bus 3'
4	1	0.0000000000		4	'dc bus 4'
5	1	0.0000000000		5	'dc bus 5'
6	1	0.0000000000		6	'dc bus 6'
7	1	0.0000000000		6	'dc bus 7'
8	1	0.0000000000		6	'dc bus 8'
11	1	0.0000000000		7	'dc bus 11'
12	1	0.0000000000		8	'dc bus 12'
13	1	0.0000000000		8	'dc bus 13'
14	1	0.0000000000		8	'dc bus 14'
15	1	0.0000000000		3	'dc bus 15'
16	1	0.0000000000		3	'dc bus 16'
17	1	0.0000000000		2	'dc bus 17'
18	1	0.0000000000		2	'dc bus 18'
19	1	0.0000000000		2	'dc bus 19'
20	1	0.0000000000		5	'dc bus 20'
21	1	0.0000000000		5	'dc bus 21'
};

%% gmd_branch data
%column_names% f_bus t_bus parent_type parent_index br_status br_r br_v len_km name
mpc.gmd_branch = {
10	11	'branch'	2	1	1.1704125033		120.6004180900		120.8197788300		'dc 2'
	% line 2-3
23	10	'branch'	3	1	1.1743799867		-93.1565551800		121.0554345900		'dc 3'
	% line 17-2
12	13	'branch'	8	1	0.7816666433		131.6942443800		161.4947334300		'dc 8'
	% line 4-5
12	13	'branch'	9	1	0.7816666433		131.6942443800		161.4947334300		'dc 9'
	% line 4-5-2
12	14	'branch'	10	1	1.5550000633		321.2622375500		321.8189388400		'dc 10'
	% line 4-6
21	12	'branch'	11	1	0.6616666667		-129.2756042500		136.9374233400		'dc 11'
	% line 15-4
13	14	'branch'	12	1	0.9916666100		190.9865112300		205.0216312300		'dc 12'
	% line 5-6
13	27	'branch'	15	1	0.0005000000		0.0000000000		0.0000000000		'dc 15'
	% series cap 5-21
14	6	'branch'	16	1	0.0500000000		0.0000000000		0.0000000000		'dc 16_hi'
	% transformer 6-7
14	6	'branch'	17	1	0.0500000000		0.0000000000		0.0000000000		'dc 17_hi'
	% transformer 6-8
14	17	'branch'	18	1	0.4816666433		-20.1373024000		99.1111180400		'dc 18'
	% line 6-11
21	14	'branch'	19	1	0.9749999433		191.1058044400		201.5642063100		'dc 19'
	% line 15-6
21	14	'branch'	20	1	0.9749999433		191.1058044400		201.5642063100		'dc 20'
	% line 15-6-2
17	18	'branch'	21	1	0.7749999500		160.1706848100		160.2936894700		'dc 21'
	% line 11-12
27	17	'branch'	22	1	1.1699999867		169.8212738000		241.4216705200		'dc 22'
	% line 21-11
18	8	'branch'	23	1	0.0333333333		0.0000000000		0.0000000000		'dc 23_hi'
	% transformer 12-13
18	8	'branch'	24	1	0.0333333333		0.0000000000		0.0000000000		'dc 24_hi'
	% transformer 12-14
22	23	'branch'	27	1	1.5552599633		-155.5575256300		160.4747384000		'dc 27'
	% line 16-17
22	26	'branch'	28	1	1.3497435100		1.4850109800		138.6435907800		'dc 28'
	% line 16-20
23	26	'branch'	31	1	2.3130526200		158.1751861600		238.1668812700		'dc 31'
	% line 17-20
10	1	'branch'	1	1	0.0333333333		0.0000000000		0.0000000000		'dc 1_hi'
	% transformer 2-1
12	4	'branch'	4	1	0.0666666667		0.0000000000		0.0000000000		'dc 4_hi'
	% transformer 4-3
11	4	'branch'	4	1	0.0333333333		0.0000000000		0.0000000000		'dc 4_lo'
	% 4-3
12	4	'branch'	5	1	0.0666666667		0.0000000000		0.0000000000		'dc 5_hi'
	% transformer 4-3-2
11	4	'branch'	5	1	0.0333333333		0.0000000000		0.0000000000		'dc 5_lo'
	% 4-3-2
12	11	'branch'	6	1	0.0133333333		0.0000000000		0.0000000000		'dc 6_series'
	% transformer 4-3-3
11	4	'branch'	6	1	0.0200000000		0.0000000000		0.0000000000		'dc 6_common'
	% 4-3-3
12	11	'branch'	7	1	0.0133333333		0.0000000000		0.0000000000		'dc 7_series'
	% transformer 4-3-4
11	4	'branch'	7	1	0.0200000000		0.0000000000		0.0000000000		'dc 7_common'
	% 4-3-4
13	5	'branch'	13	1	0.0133333333		0.0000000000		0.0000000000		'dc 13_hi'
	% transformer 5-20
26	5	'branch'	13	1	0.0200000000		0.0000000000		0.0000000000		'dc 13_lo'
	% 5-20
13	5	'branch'	14	1	0.0133333333		0.0000000000		0.0000000000		'dc 14_hi'
	% transformer 5-20-2
26	5	'branch'	14	1	0.0200000000		0.0000000000		0.0000000000		'dc 14_lo'
	% 5-20-2
21	22	'branch'	25	1	0.0133333333		0.0000000000		0.0000000000		'dc 25_series'
	% transformer 15-16
22	3	'branch'	25	1	0.0200000000		0.0000000000		0.0000000000		'dc 25_common'
	% 15-16
21	22	'branch'	26	1	0.0133333333		0.0000000000		0.0000000000		'dc 26_series'
	% transformer 15-16-2
22	3	'branch'	26	1	0.0200000000		0.0000000000		0.0000000000		'dc 26_common'
	% 15-16-2
23	2	'branch'	29	1	0.0333333333		0.0000000000		0.0000000000		'dc 29_hi'
	% transformer 17-18
23	2	'branch'	30	1	0.0333333333		0.0000000000		0.0000000000		'dc 30_hi'
	% transformer 17-19
9	1	'bus'	1	1	25000.0000000000		0.0000000000		0.0000000000		'dc bus_9'
10	1	'bus'	2	1	25000.0000000000		0.0000000000		0.0000000000		'dc bus_10'
11	4	'bus'	3	1	25000.0000000000		0.0000000000		0.0000000000		'dc bus_11'
12	4	'bus'	4	1	25000.0000000000		0.0000000000		0.0000000000		'dc bus_12'
13	5	'bus'	5	1	25000.0000000000		0.0000000000		0.0000000000		'dc bus_13'
14	6	'bus'	6	1	25000.0000000000		0.0000000000		0.0000000000		'dc bus_14'
15	6	'bus'	7	1	25000.0000000000		0.0000000000		0.0000000000		'dc bus_15'
16	6	'bus'	8	1	25000.0000000000		0.0000000000		0.0000000000		'dc bus_16'
17	7	'bus'	11	1	25000.0000000000		0.0000000000		0.0000000000		'dc bus_17'
18	8	'bus'	12	1	25000.0000000000		0.0000000000		0.0000000000		'dc bus_18'
19	8	'bus'	13	1	25000.0000000000		0.0000000000		0.0000000000		'dc bus_19'
20	8	'bus'	14	1	25000.0000000000		0.0000000000		0.0000000000		'dc bus_20'
21	3	'bus'	15	1	25000.0000000000		0.0000000000		0.0000000000		'dc bus_21'
22	3	'bus'	16	1	25000.0000000000		0.0000000000		0.0000000000		'dc bus_22'
23	2	'bus'	17	1	25000.0000000000		0.0000000000		0.0000000000		'dc bus_23'
24	2	'bus'	18	1	25000.0000000000		0.0000000000		0.0000000000		'dc bus_24'
25	2	'bus'	19	1	25000.0000000000		0.0000000000		0.0000000000		'dc bus_25'
26	5	'bus'	20	1	25000.0000000000		0.0000000000		0.0000000000		'dc bus_26'
27	5	'bus'	21	1	25000.0000000000		0.0000000000		0.0000000000		'dc bus_27'
};

%% branch_gmd data
%column_names% hi_bus lo_bus gmd_br_hi gmd_br_lo gmd_k gmd_br_series gmd_br_common baseMVA type config
mpc.branch_gmd = {
2	1	21	-1	0.9797959000		-1		-1		100.0	'xfmr'	'gwye-delta'
2	3	-1	-1	-1.0000000000		-1		-1		100.0	'line'	'none'
17	2	-1	-1	-1.0000000000		-1		-1		100.0	'line'	'none'
4	3	22	23	1.7962924800		-1		-1		100.0	'xfmr'	'gwye-gwye'
4	3	24	25	1.7962924800		-1		-1		100.0	'xfmr'	'gwye-gwye'
4	3	-1	-1	1.7962924800		26		27		100.0	'xfmr'	'gwye-gwye-auto'
4	3	-1	-1	1.7962924800		28		29		100.0	'xfmr'	'gwye-gwye-auto'
4	5	-1	-1	-1.0000000000		-1		-1		100.0	'line'	'none'
4	5	-1	-1	-1.0000000000		-1		-1		100.0	'line'	'none'
4	6	-1	-1	-1.0000000000		-1		-1		100.0	'line'	'none'
15	4	-1	-1	-1.0000000000		-1		-1		100.0	'line'	'none'
5	6	-1	-1	-1.0000000000		-1		-1		100.0	'line'	'none'
5	20	30	31	1.7962924800		-1		-1		100.0	'xfmr'	'gwye-gwye'
5	20	32	33	1.7962924800		-1		-1		100.0	'xfmr'	'gwye-gwye'
5	21	-1	-1	-1.0000000000		-1		-1		100.0	'series_cap'	'none'
6	7	9	-1	1.7962924800		-1		-1		100.0	'xfmr'	'gwye-delta'
6	8	10	-1	1.7962924800		-1		-1		100.0	'xfmr'	'gwye-delta'
6	11	-1	-1	-1.0000000000		-1		-1		100.0	'line'	'none'
15	6	-1	-1	-1.0000000000		-1		-1		100.0	'line'	'none'
15	6	-1	-1	-1.0000000000		-1		-1		100.0	'line'	'none'
11	12	-1	-1	-1.0000000000		-1		-1		100.0	'line'	'none'
21	11	-1	-1	-1.0000000000		-1		-1		100.0	'line'	'none'
12	13	16	-1	1.7962924800		-1		-1		100.0	'xfmr'	'gwye-delta'
12	14	17	-1	1.7962924800		-1		-1		100.0	'xfmr'	'gwye-delta'
15	16	-1	-1	1.7962924800		34		35		100.0	'xfmr'	'gwye-gwye-auto'
15	16	-1	-1	1.7962924800		36		37		100.0	'xfmr'	'gwye-gwye-auto'
16	17	-1	-1	-1.0000000000		-1		-1		100.0	'line'	'none'
16	20	-1	-1	-1.0000000000		-1		-1		100.0	'line'	'none'
17	18	38	-1	0.9797959000		-1		-1		100.0	'xfmr'	'gwye-delta'
17	19	39	-1	0.9797959000		-1		-1		100.0	'xfmr'	'gwye-delta'
17	20	-1	-1	-1.0000000000		-1		-1		100.0	'line'	'none'
};

%% bus_gmd data
%column_names% lat lon
mpc.bus_gmd = {
33.6135000000		33.6135000000		
33.6135000000		33.6135000000		
33.5478900000		33.5478900000		
33.5478900000		33.5478900000		
32.7050900000		32.7050900000		
33.3773000000		33.3773000000		
33.3773000000		33.3773000000		
33.3773000000		33.3773000000		
34.2522000000		34.2522000000		
34.1956000000		34.1956000000		
34.1956000000		34.1956000000		
34.1956000000		34.1956000000		
33.9550600000		33.9550600000		
33.9550600000		33.9550600000		
34.3104400000		34.3104400000		
34.3104400000		34.3104400000		
34.3104400000		34.3104400000		
32.7050900000		32.7050900000		
32.7050900000		32.7050900000		
};

%% branch_thermal data
%column_names% xfmr temperature_ambient hotspot_instant_limit hotspot_avg_limit hotspot_rated topoil_time_const topoil_rated topoil_init topoil_initialized hotspot_coeff
mpc.branch_thermal = {
1	25	280	240	150	71	75	0	1	0.63
0	-1	-1	-1	-1	-1	-1	-1	-1	-1
0	-1	-1	-1	-1	-1	-1	-1	-1	-1
1	25	280	240	150	71	75	0	1	0.63
1	25	280	240	150	71	75	0	1	0.63
1	25	280	240	150	71	75	0	1	0.63
1	25	280	240	150	71	75	0	1	0.63
0	-1	-1	-1	-1	-1	-1	-1	-1	-1
0	-1	-1	-1	-1	-1	-1	-1	-1	-1
0	-1	-1	-1	-1	-1	-1	-1	-1	-1
0	-1	-1	-1	-1	-1	-1	-1	-1	-1
0	-1	-1	-1	-1	-1	-1	-1	-1	-1
1	25	280	240	150	71	75	0	1	0.63
1	25	280	240	150	71	75	0	1	0.63
0	-1	-1	-1	-1	-1	-1	-1	-1	-1
1	25	280	240	150	71	75	0	1	0.63
1	25	280	240	150	71	75	0	1	0.63
0	-1	-1	-1	-1	-1	-1	-1	-1	-1
0	-1	-1	-1	-1	-1	-1	-1	-1	-1
0	-1	-1	-1	-1	-1	-1	-1	-1	-1
0	-1	-1	-1	-1	-1	-1	-1	-1	-1
0	-1	-1	-1	-1	-1	-1	-1	-1	-1
1	25	280	240	150	71	75	0	1	0.63
1	25	280	240	150	71	75	0	1	0.63
1	25	280	240	150	71	75	0	1	0.63
1	25	280	240	150	71	75	0	1	0.63
0	-1	-1	-1	-1	-1	-1	-1	-1	-1
0	-1	-1	-1	-1	-1	-1	-1	-1	-1
1	25	280	240	150	71	75	0	1	0.63
1	25	280	240	150	71	75	0	1	0.63
0	-1	-1	-1	-1	-1	-1	-1	-1	-1
};
